13
1-4,pentadiene
C          1.59247        0.78247        0.62219
C          2.41560       -0.09597        0.03436
C          3.24140        0.19884       -1.18394
C          4.70706        0.07069       -0.88801
C          5.52749       -0.80152       -1.48883
H          1.01897        0.50302        1.50063
H          1.47215        1.79325        0.24479
H          2.49802       -1.09934        0.44812
H          3.04760        1.21321       -1.55193
H          2.94148       -0.48940       -1.98298
H          5.11434        0.74656       -0.13849
H          5.17121       -1.49279       -2.24621
H          6.58149       -0.83950       -1.23084
