10

C          0.93481        0.01023       -0.07513
C          2.12497        0.01023       -0.07513
C          3.56897        0.01023       -0.07513
C          4.12733        1.27427       -0.70674
H         -0.13090        0.01040       -0.07522
H          3.94585       -0.86053       -0.62335
H          3.94585       -0.07419        0.95036
H          3.79954        1.37626       -1.74764
H          5.22227        1.25371       -0.69646
H          3.79954        2.16790       -0.16331
