12
1-butene
C          1.84633        0.05202        1.19762
C          2.51545       -0.04279        0.04206
C          3.17818        1.11562       -0.64400
C          4.67935        0.90460       -0.76483
H          1.38237       -0.82223        1.64416
H          1.74590        0.99623        1.72403
H          2.58353       -1.01162       -0.44957
H          2.98772        2.05131       -0.10591
H          2.74449        1.22750       -1.64402
H          5.14659        0.81147        0.22156
H          5.14036        1.75439       -1.27864
H          4.90855       -0.00065       -1.33754
