13
2-3,pentadiene
C          0.95038        0.08622       -0.00263
C         -0.34748        0.03820        0.04184
C         -1.14042       -0.82623        0.96420
C          2.25027        0.13437       -0.04729
C          3.04224        1.11403       -0.84605
H         -0.91025        0.67156       -0.63813
H         -0.49691       -1.43280        1.60954
H         -1.78085       -1.50004        0.38705
H         -1.77916       -0.20660        1.60083
H          2.81234       -0.58739        0.53790
H          2.39871        1.79966       -1.40674
H          3.68273        0.58487       -1.55815
H          3.68105        1.70663       -0.18418
