15
2-pentene
C          2.24544        0.46267       -1.43151
C          2.73487        0.15449       -0.02500
C          3.23686       -1.25631        0.08186
C          4.50586       -1.66482        0.23411
C          5.73596       -0.81868        0.29786
H          1.85752        1.48529       -1.48070
H          1.44119       -0.21790       -1.73066
H          3.05757        0.37332       -2.16011
H          1.90672        0.28146        0.68292
H          3.49651        0.88422        0.26336
H          2.46253       -2.02406        0.04348
H          4.68580       -2.73680        0.31036
H          5.54471        0.24078        0.11108
H          6.45491       -1.16035       -0.45338
H          6.20198       -0.91443        1.28349
