17
isopentane
C          1.02193       -0.14897       -0.04236
C          2.54033       -0.17364        0.05555
C          3.07259        0.14906        1.46303
C          2.63862       -0.88775        2.50115
C          4.60011        0.24264        1.43248
H          0.71165       -0.28194       -1.08334
H          0.62072        0.80603        0.31118
H          0.56837       -0.95453        0.54197
H          2.93991        0.56094       -0.65531
H          2.90507       -1.15599       -0.26911
H          2.68162        1.12728        1.77109
H          2.95124       -1.89547        2.20971
H          1.55270       -0.89046        2.63099
H          3.08126       -0.66587        3.47807
H          5.05062       -0.70961        1.13432
H          4.99298        0.50992        2.41899
H          4.92862        1.01053        0.72462
