17
neopentane
C          1.05048        0.05733       -0.04897
C          2.58564        0.05840       -0.04907
C          3.09726        1.01746       -1.13191
C          3.09728        0.51552        1.32407
C          3.09741       -1.36014       -0.33865
H          0.65424       -0.62041        0.71571
H          0.65441       -0.26607       -1.01824
H          0.65437        1.05833        0.15558
H          2.74778        0.71595       -2.12596
H          4.19280        1.03943       -1.15659
H          2.74762        2.04056       -0.95207
H          2.74768       -0.15168        2.11998
H          2.74758        1.52714        1.55985
H          4.19272        0.52608        1.35537
H          2.74779       -2.07089        0.41973
H          4.19333       -1.39275       -0.34517
H          2.74787       -1.71638       -1.31490
